LAMMPS (29 Sep 2021 - Update 2)
units real
atom_style full

# 2d micelle simulation

dimension	3 #3 dimension

neighbor	0.3 bin #kurang lebih sama kaya cutoff
neigh_modify	delay 5 #satuan waktu yang menentukan lama nya interaksi sebelum berganti kondisi

atom_style	bond #menggunakan atom style bond yang menunjukan bahwa ikatan ikut dihitung

# Soft potential push-off

read_data	data.micelle #membaca data yang berisikan data data
Reading data file ...
  orthogonal box = (-0.072500000 -0.35550000 0.012500000) to (19.927500 19.644500 20.012500)
  reading atoms ...
  149 atoms
  scanning bonds ...
  reading bonds ...
  129 bonds
Finding 1-2 1-3 1-4 neighbors ...
     4 = max # of 1-2 neighbors
     9 = max # of 1-3 neighbors
    27 = max # of 1-4 neighbors
    31 = max # of special neighbors
special_bonds	fene #finite extensible nonlinear elastic
Finding 1-2 1-3 1-4 neighbors ...
     4 = max # of 1-2 neighbors
    31 = max # of special neighbors

pair_style	soft 1.12246 #kemungkinan lj/cut
pair_coeff	* * 0.0 1.12246

bond_style	harmonic
bond_coeff	1 469.0000     1.4000 # C-C K - R0 (jarak ikatan antar atom dalam posisi optimum)
bond_coeff	2 367.0000     1.0800 # C-H
bond_coeff	3 320.0000     1.4100 # C-O
bond_coeff	4 553.0000     0.9450 # H-O atoms 61-58 bonds 60

velocity	all create 0.45 2349852

variable	prefactor equal ramp(1.0,20.0)

fix		1 all nve
fix		2 all temp/rescale 100 0.45 0.45 0.02 1.0
fix		3 all adapt 1 pair soft a * * v_prefactor
#fix		4 all enforce2d

thermo		50
run		1000
  update every 1 steps, delay 5 steps, check yes
Step Temp E_pair E_mol TotEng Press
0         0.45            0    253.92648      254.125    -20769.74
Averages over the last 11 of 21 rows, steps 500 to 1000:
Temp E_pair E_mol TotEng Press
1.15307 0.00584859 1.83692 2.35145 19.3614
Loop time of 0.00809829 on 1 procs for 1000 steps with 149 atoms

unfix		3

# Main run

pair_style	lj/cut 2.5

# solvent/head - full-size and long-range

pair_coeff	1 1 1.0 1.0 2.5
pair_coeff	2 2 1.0 1.0 2.5
pair_coeff	1 2 1.0 1.0 2.5

# tail/tail - size-averaged and long-range

pair_coeff	3 3 1.0 0.75 2.5
#pair_coeff	4 4 1.0 0.50 2.5 #-----------
#pair_coeff	3 4 1.0 0.67 2.5 #-----------

# solvent/tail - full-size and repulsive

pair_coeff	1 3 1.0 1.0 1.12246
#pair_coeff	1 4 1.0 1.0 1.12246 #---------

# head/tail - size-averaged and repulsive

pair_coeff	2 3 1.0 0.88 1.12246
#pair_coeff	2 4 1.0 0.75 1.12246 #---------

thermo		50

dump		1 all atom 10 dump.xyz

#dump		2 all image 2000 image.*.jpg type type zoom 1.6
#dump_modify	2 pad 5 adiam 1 0.5 adiam 2 1.5 adiam 3 1.0 adiam 4 0.75

#dump		3 all movie 2000 movie.mpg type type zoom 1.6
#dump_modify	3 pad 5

reset_timestep	0
run		10000
  update every 1 steps, delay 5 steps, check yes
Step Temp E_pair E_mol TotEng Press
0         0.45   -55.256629   0.67695289   -54.381154   -951.37916
Averages over the last 101 of 201 rows, steps 5000 to 10000:
Temp E_pair E_mol TotEng Press
0.793621 -288.446 0.259335 -287.837 -13.015
Loop time of 0.219646 on 1 procs for 10000 steps with 149 atoms
